sim-outorder: SimpleScalar/PISA Tool Set version 3.0 of August, 2003.
Copyright (c) 1994-2003 by Todd M. Austin, Ph.D. and SimpleScalar, LLC.
All Rights Reserved. This version of SimpleScalar is licensed for academic
non-commercial use.  No portion of this work may be used by any commercial
entity, or for any commercial purpose, without the prior written permission
of SimpleScalar, LLC (info@simplescalar.com).


Processor Parameters:
Issue Width: 4
Window Size: 8
Number of Virtual Registers: 32
Number of Physical Registers: 8
Datapath Width: 64
Total Power Consumption: 75.2696
Branch Predictor Power Consumption: 4.60235  (6.28%)
 branch target buffer power (W): 4.16837
 local predict power (W): 0.0879711
 global predict power (W): 0.178829
 chooser power (W): 0.0702439
 RAS power (W): 0.0969383
Rename Logic Power Consumption: 0.351534  (0.48%)
 Instruction Decode Power (W): 0.0159915
 RAT decode_power (W): 0.113514
 RAT wordline_power (W): 0.0260431
 RAT bitline_power (W): 0.185078
 DCL Comparators (W): 0.0109075
Instruction Window Power Consumption: 1.38003  (1.88%)
 tagdrive (W): 0.0465589
 tagmatch (W): 0.0135476
 Selection Logic (W): 0.00805301
 decode_power (W): 0.0239873
 wordline_power (W): 0.0844643
 bitline_power (W): 1.20342
Load/Store Queue Power Consumption: 0.855275  (1.17%)
 tagdrive (W): 0.457232
 tagmatch (W): 0.100774
 decode_power (W): 0.00799577
 wordline_power (W): 0.0150119
 bitline_power (W): 0.274261
Arch. Register File Power Consumption: 3.57247  (4.88%)
 decode_power (W): 0.113514
 wordline_power (W): 0.0844643
 bitline_power (W): 3.37449
Result Bus Power Consumption: 2.05965  (2.81%)
Total Clock Power: 26.8206  (36.6%)
Int ALU Power: 4.66013  (6.36%)
FP ALU Power: 14.281  (19.5%)
Instruction Cache Power Consumption: 2.21363  (3.02%)
 decode_power (W): 0.779481
 wordline_power (W): 0.028656
 bitline_power (W): 0.886372
 senseamp_power (W): 0.096
 tagarray_power (W): 0.423116
Itlb_power (W): 0.263317 (0.359%)
Data Cache Power Consumption: 7.1  (9.69%)
 decode_power (W): 0.724888
 wordline_power (W): 0.180479
 bitline_power (W): 4.58765
 senseamp_power (W): 0.768
 tagarray_power (W): 0.838979
Dtlb_power (W): 0.900515 (1.23%)
Level 2 Cache Power Consumption: 4.2091 (5.74%)
 decode_power (W): 0.41817
 wordline_power (W): 0.0430878
 bitline_power (W): 3.0244
 senseamp_power (W): 0.192
 tagarray_power (W): 0.531433
sim: command line: /home/passionguan/Downloads/Computer_Architecture_Course/Homework_3/hw3_simplescalar_archive/sim-wattch-1.02e/sim-outorder -config ruu_size_8.cfg ./compress.ss 

sim: simulation started @ Mon Oct 17 02:46:26 2016, options follow:

sim-outorder: This simulator implements a very detailed out-of-order issue
superscalar processor with a two-level memory system and speculative
execution support.  This simulator is a performance simulator, tracking the
latency of all pipeline operations.

# -config                     # load configuration from a file
# -dumpconfig                 # dump configuration to a file
# -h                    false # print help message    
# -v                    false # verbose operation     
# -d                    false # enable debug message  
# -i                    false # start in Dlite debugger
-seed                       1 # random number generator seed (0 for timer seed)
# -q                    false # initialize and terminate immediately
# -chkpt               <null> # restore EIO trace execution from <fname>
# -redir:sim           <null> # redirect simulator output to file (non-interactive only)
# -redir:prog          <null> # redirect simulated program output to file
-nice                       0 # simulator scheduling priority
-max:inst                   0 # maximum number of inst's to execute
-fastfwd                    0 # number of insts skipped before timing starts
# -ptrace              <null> # generate pipetrace, i.e., <fname|stdout|stderr> <range>
-fetch:ifqsize              4 # instruction fetch queue size (in insts)
-fetch:mplat                3 # extra branch mis-prediction latency
-fetch:speed                1 # speed of front-end of machine relative to execution core
-bpred                  bimod # branch predictor type {nottaken|taken|perfect|bimod|2lev|comb}
-bpred:bimod     4096 # bimodal predictor config (<table size>)
-bpred:2lev      1 1024 8 0 # 2-level predictor config (<l1size> <l2size> <hist_size> <xor>)
-bpred:comb      1024 # combining predictor config (<meta_table_size>)
-bpred:ras                  8 # return address stack size (0 for no return stack)
-bpred:btb       512 4 # BTB config (<num_sets> <associativity>)
# -bpred:spec_update       <null> # speculative predictors update in {ID|WB} (default non-spec)
-decode:width               4 # instruction decode B/W (insts/cycle)
-issue:width                4 # instruction issue B/W (insts/cycle)
-issue:inorder          false # run pipeline with in-order issue
-issue:wrongpath         true # issue instructions down wrong execution paths
-commit:width               4 # instruction commit B/W (insts/cycle)
-ruu:size                   8 # register update unit (RUU) size
-lsq:size                   8 # load/store queue (LSQ) size
-cache:dl1       dl1:128:64:4:l # l1 data cache config, i.e., {<config>|none}
-cache:dl1lat               1 # l1 data cache hit latency (in cycles)
-cache:dl2       ul2:1024:64:4:l # l2 data cache config, i.e., {<config>|none}
-cache:dl2lat               6 # l2 data cache hit latency (in cycles)
-cache:il1       il1:512:32:1:l # l1 inst cache config, i.e., {<config>|dl1|dl2|none}
-cache:il1lat               1 # l1 instruction cache hit latency (in cycles)
-cache:il2                dl2 # l2 instruction cache config, i.e., {<config>|dl2|none}
-cache:il2lat               6 # l2 instruction cache hit latency (in cycles)
-cache:flush            false # flush caches on system calls
-cache:icompress        false # convert 64-bit inst addresses to 32-bit inst equivalents
-mem:lat         18 2 # memory access latency (<first_chunk> <inter_chunk>)
-mem:width                  8 # memory access bus width (in bytes)
-tlb:itlb        itlb:16:4096:4:l # instruction TLB config, i.e., {<config>|none}
-tlb:dtlb        dtlb:32:4096:4:l # data TLB config, i.e., {<config>|none}
-tlb:lat                   30 # inst/data TLB miss latency (in cycles)
-res:ialu                   4 # total number of integer ALU's available
-res:imult                  1 # total number of integer multiplier/dividers available
-res:memport                2 # total number of memory system ports available (to CPU)
-res:fpalu                  4 # total number of floating point ALU's available
-res:fpmult                 1 # total number of floating point multiplier/dividers available
# -pcstat              <null> # profile stat(s) against text addr's (mult uses ok)
-bugcompat              false # operate in backward-compatible bugs mode (for testing only)

  Pipetrace range arguments are formatted as follows:

    {{@|#}<start>}:{{@|#|+}<end>}

  Both ends of the range are optional, if neither are specified, the entire
  execution is traced.  Ranges that start with a `@' designate an address
  range to be traced, those that start with an `#' designate a cycle count
  range.  All other range values represent an instruction count range.  The
  second argument, if specified with a `+', indicates a value relative
  to the first argument, e.g., 1000:+100 == 1000:1100.  Program symbols may
  be used in all contexts.

    Examples:   -ptrace FOO.trc #0:#1000
                -ptrace BAR.trc @2000:
                -ptrace BLAH.trc :1500
                -ptrace UXXE.trc :
                -ptrace FOOBAR.trc @main:+278

  Branch predictor configuration examples for 2-level predictor:
    Configurations:   N, M, W, X
      N   # entries in first level (# of shift register(s))
      W   width of shift register(s)
      M   # entries in 2nd level (# of counters, or other FSM)
      X   (yes-1/no-0) xor history and address for 2nd level index
    Sample predictors:
      GAg     : 1, W, 2^W, 0
      GAp     : 1, W, M (M > 2^W), 0
      PAg     : N, W, 2^W, 0
      PAp     : N, W, M (M == 2^(N+W)), 0
      gshare  : 1, W, 2^W, 1
  Predictor `comb' combines a bimodal and a 2-level predictor.

  The cache config parameter <config> has the following format:

    <name>:<nsets>:<bsize>:<assoc>:<repl>

    <name>   - name of the cache being defined
    <nsets>  - number of sets in the cache
    <bsize>  - block size of the cache
    <assoc>  - associativity of the cache
    <repl>   - block replacement strategy, 'l'-LRU, 'f'-FIFO, 'r'-random

    Examples:   -cache:dl1 dl1:4096:32:1:l
                -dtlb dtlb:128:4096:32:r

  Cache levels can be unified by pointing a level of the instruction cache
  hierarchy at the data cache hiearchy using the "dl1" and "dl2" cache
  configuration arguments.  Most sensible combinations are supported, e.g.,

    A unified l2 cache (il2 is pointed at dl2):
      -cache:il1 il1:128:64:1:l -cache:il2 dl2
      -cache:dl1 dl1:256:32:1:l -cache:dl2 ul2:1024:64:2:l

    Or, a fully unified cache hierarchy (il1 pointed at dl1):
      -cache:il1 dl1
      -cache:dl1 ul1:256:32:1:l -cache:dl2 ul2:1024:64:2:l



sim: ** starting performance simulation **

sim: ** simulation statistics **
sim_num_insn                3520493 # total number of instructions committed
sim_num_refs                2152774 # total number of loads and stores committed
sim_num_loads                264260 # total number of loads committed
sim_num_stores         1888514.0000 # total number of stores committed
sim_num_branches             338527 # total number of branches committed
sim_elapsed_time                  2 # total simulation time in seconds
sim_inst_rate          1760246.5000 # simulation speed (in insts/sec)
sim_total_insn              3560147 # total number of instructions executed
sim_total_refs              2168458 # total number of loads and stores executed
sim_total_loads              276637 # total number of loads executed
sim_total_stores       1891821.0000 # total number of stores executed
sim_total_branches           344532 # total number of branches executed
sim_cycle                   2223151 # total simulation time in cycles
sim_IPC                      1.5836 # instructions per cycle
sim_CPI                      0.6315 # cycles per instruction
sim_exec_BW                  1.6014 # total instructions (mis-spec + committed) per cycle
sim_IPB                     10.3994 # instruction per branch
IFQ_count                   7827303 # cumulative IFQ occupancy
IFQ_fcount                  1889928 # cumulative IFQ full count
ifq_occupancy                3.5208 # avg IFQ occupancy (insn's)
ifq_rate                     1.6014 # avg IFQ dispatch rate (insn/cycle)
ifq_latency                  2.1986 # avg IFQ occupant latency (cycle's)
ifq_full                     0.8501 # fraction of time (cycle's) IFQ was full
RUU_count                  16016306 # cumulative RUU occupancy
RUU_fcount                  1949748 # cumulative RUU full count
ruu_occupancy                7.2043 # avg RUU occupancy (insn's)
ruu_rate                     1.6014 # avg RUU dispatch rate (insn/cycle)
ruu_latency                  4.4988 # avg RUU occupant latency (cycle's)
ruu_full                     0.8770 # fraction of time (cycle's) RUU was full
LSQ_count                   8940180 # cumulative LSQ occupancy
LSQ_fcount                   432147 # cumulative LSQ full count
lsq_occupancy                4.0214 # avg LSQ occupancy (insn's)
lsq_rate                     1.6014 # avg LSQ dispatch rate (insn/cycle)
lsq_latency                  2.5112 # avg LSQ occupant latency (cycle's)
lsq_full                     0.1944 # fraction of time (cycle's) LSQ was full
sim_slip                   30510487 # total number of slip cycles
avg_sim_slip                 8.6665 # the average slip between issue and retirement
bpred_bimod.lookups          351084 # total number of bpred lookups
bpred_bimod.updates          338527 # total number of updates
bpred_bimod.addr_hits        328367 # total number of address-predicted hits
bpred_bimod.dir_hits         328682 # total number of direction-predicted hits (includes addr-hits)
bpred_bimod.misses             9845 # total number of misses
bpred_bimod.jr_hits           23847 # total number of address-predicted hits for JR's
bpred_bimod.jr_seen           23986 # total number of JR's seen
bpred_bimod.jr_non_ras_hits.PP           63 # total number of address-predicted hits for non-RAS JR's
bpred_bimod.jr_non_ras_seen.PP          188 # total number of non-RAS JR's seen
bpred_bimod.bpred_addr_rate    0.9700 # branch address-prediction rate (i.e., addr-hits/updates)
bpred_bimod.bpred_dir_rate    0.9709 # branch direction-prediction rate (i.e., all-hits/updates)
bpred_bimod.bpred_jr_rate    0.9942 # JR address-prediction rate (i.e., JR addr-hits/JRs seen)
bpred_bimod.bpred_jr_non_ras_rate.PP    0.3351 # non-RAS JR addr-pred rate (ie, non-RAS JR hits/JRs seen)
bpred_bimod.retstack_pushes        26503 # total number of address pushed onto ret-addr stack
bpred_bimod.retstack_pops        24625 # total number of address popped off of ret-addr stack
bpred_bimod.used_ras.PP        23798 # total number of RAS predictions used
bpred_bimod.ras_hits.PP        23784 # total number of RAS hits
bpred_bimod.ras_rate.PP    0.9994 # RAS prediction rate (i.e., RAS hits/used RAS)
il1.accesses                3608317 # total number of accesses
il1.hits                    3595543 # total number of hits
il1.misses                    12774 # total number of misses
il1.replacements              12313 # total number of replacements
il1.writebacks                    0 # total number of writebacks
il1.invalidations                 0 # total number of invalidations
il1.miss_rate                0.0035 # miss rate (i.e., misses/ref)
il1.repl_rate                0.0034 # replacement rate (i.e., repls/ref)
il1.wb_rate                  0.0000 # writeback rate (i.e., wrbks/ref)
il1.inv_rate                 0.0000 # invalidation rate (i.e., invs/ref)
dl1.accesses                2154460 # total number of accesses
dl1.hits                    2036321 # total number of hits
dl1.misses                   118139 # total number of misses
dl1.replacements             117627 # total number of replacements
dl1.writebacks               115946 # total number of writebacks
dl1.invalidations                 0 # total number of invalidations
dl1.miss_rate                0.0548 # miss rate (i.e., misses/ref)
dl1.repl_rate                0.0546 # replacement rate (i.e., repls/ref)
dl1.wb_rate                  0.0538 # writeback rate (i.e., wrbks/ref)
dl1.inv_rate                 0.0000 # invalidation rate (i.e., invs/ref)
ul2.accesses                 246859 # total number of accesses
ul2.hits                     186673 # total number of hits
ul2.misses                    60186 # total number of misses
ul2.replacements              56090 # total number of replacements
ul2.writebacks                50224 # total number of writebacks
ul2.invalidations                 0 # total number of invalidations
ul2.miss_rate                0.2438 # miss rate (i.e., misses/ref)
ul2.repl_rate                0.2272 # replacement rate (i.e., repls/ref)
ul2.wb_rate                  0.2035 # writeback rate (i.e., wrbks/ref)
ul2.inv_rate                 0.0000 # invalidation rate (i.e., invs/ref)
itlb.accesses               3608317 # total number of accesses
itlb.hits                   3608297 # total number of hits
itlb.misses                      20 # total number of misses
itlb.replacements                 0 # total number of replacements
itlb.writebacks                   0 # total number of writebacks
itlb.invalidations                0 # total number of invalidations
itlb.miss_rate               0.0000 # miss rate (i.e., misses/ref)
itlb.repl_rate               0.0000 # replacement rate (i.e., repls/ref)
itlb.wb_rate                 0.0000 # writeback rate (i.e., wrbks/ref)
itlb.inv_rate                0.0000 # invalidation rate (i.e., invs/ref)
dtlb.accesses               2155414 # total number of accesses
dtlb.hits                   2155199 # total number of hits
dtlb.misses                     215 # total number of misses
dtlb.replacements                88 # total number of replacements
dtlb.writebacks                   0 # total number of writebacks
dtlb.invalidations                0 # total number of invalidations
dtlb.miss_rate               0.0001 # miss rate (i.e., misses/ref)
dtlb.repl_rate               0.0000 # replacement rate (i.e., repls/ref)
dtlb.wb_rate                 0.0000 # writeback rate (i.e., wrbks/ref)
dtlb.inv_rate                0.0000 # invalidation rate (i.e., invs/ref)
rename_power            781514.0578 # total power usage of rename unit
bpred_power            10231714.5982 # total power usage of bpred unit
window_power           3068021.1351 # total power usage of instruction window
lsq_power              1901404.9312 # total power usage of load/store queue
regfile_power          7942144.9338 # total power usage of arch. regfile
icache_power           5506615.4976 # total power usage of icache
dcache_power           17786354.5061 # total power usage of dcache
dcache2_power          9357454.7465 # total power usage of dcache2
alu_power              42109093.0347 # total power usage of alu
falu_power             31748919.3513 # total power usage of falu
resultbus_power        4578904.9313 # total power usage of resultbus
clock_power            59626232.8692 # total power usage of clock
avg_rename_power             0.3515 # avg power usage of rename unit
avg_bpred_power              4.6023 # avg power usage of bpred unit
avg_window_power             1.3800 # avg power usage of instruction window
avg_lsq_power                0.8553 # avg power usage of lsq
avg_regfile_power            3.5725 # avg power usage of arch. regfile
avg_icache_power             2.4769 # avg power usage of icache
avg_dcache_power             8.0005 # avg power usage of dcache
avg_dcache2_power            4.2091 # avg power usage of dcache2
avg_alu_power               18.9412 # avg power usage of alu
avg_falu_power              14.2810 # avg power usage of falu
avg_resultbus_power          2.0596 # avg power usage of resultbus
avg_clock_power             26.8206 # avg power usage of clock
fetch_stage_power      15738330.0958 # total power usage of fetch stage
dispatch_stage_power    781514.0578 # total power usage of dispatch stage
issue_stage_power      78801233.2850 # total power usage of issue stage
avg_fetch_power              7.0793 # average power of fetch unit per cycle
avg_dispatch_power           0.3515 # average power of dispatch unit per cycle
avg_issue_power             35.4457 # average power of issue unit per cycle
total_power            162889455.2415 # total power per cycle
avg_total_power_cycle       73.2696 # average total power per cycle
avg_total_power_cycle_nofp_nod2      54.7795 # average total power per cycle
avg_total_power_insn        45.7536 # average total power per insn
avg_total_power_insn_nofp_nod2      34.2073 # average total power per insn
rename_power_cc1        565968.9814 # total power usage of rename unit_cc1
bpred_power_cc1        1459038.6698 # total power usage of bpred unit_cc1
window_power_cc1       2007777.4035 # total power usage of instruction window_cc1
lsq_power_cc1           413976.3981 # total power usage of lsq_cc1
regfile_power_cc1      4236081.2253 # total power usage of arch. regfile_cc1
icache_power_cc1       4058766.2675 # total power usage of icache_cc1
dcache_power_cc1       9485723.4485 # total power usage of dcache_cc1
dcache2_power_cc1       550911.6663 # total power usage of dcache2_cc1
alu_power_cc1          8395768.4480 # total power usage of alu_cc1
resultbus_power_cc1    3006458.3718 # total power usage of resultbus_cc1
clock_power_cc1        17521632.3639 # total power usage of clock_cc1
avg_rename_power_cc1         0.2546 # avg power usage of rename unit_cc1
avg_bpred_power_cc1          0.6563 # avg power usage of bpred unit_cc1
avg_window_power_cc1         0.9031 # avg power usage of instruction window_cc1
avg_lsq_power_cc1            0.1862 # avg power usage of lsq_cc1
avg_regfile_power_cc1        1.9054 # avg power usage of arch. regfile_cc1
avg_icache_power_cc1         1.8257 # avg power usage of icache_cc1
avg_dcache_power_cc1         4.2668 # avg power usage of dcache_cc1
avg_dcache2_power_cc1        0.2478 # avg power usage of dcache2_cc1
avg_alu_power_cc1            3.7765 # avg power usage of alu_cc1
avg_resultbus_power_cc1       1.3523 # avg power usage of resultbus_cc1
avg_clock_power_cc1          7.8814 # avg power usage of clock_cc1
fetch_stage_power_cc1  5517804.9373 # total power usage of fetch stage_cc1
dispatch_stage_power_cc1  565968.9814 # total power usage of dispatch stage_cc1
issue_stage_power_cc1  23860615.7362 # total power usage of issue stage_cc1
avg_fetch_power_cc1          2.4820 # average power of fetch unit per cycle_cc1
avg_dispatch_power_cc1       0.2546 # average power of dispatch unit per cycle_cc1
avg_issue_power_cc1         10.7328 # average power of issue unit per cycle_cc1
total_power_cycle_cc1  51702103.2441 # total power per cycle_cc1
avg_total_power_cycle_cc1      23.2562 # average total power per cycle_cc1
avg_total_power_insn_cc1      14.5225 # average total power per insn_cc1
rename_power_cc2        312851.5566 # total power usage of rename unit_cc2
bpred_power_cc2         779009.5337 # total power usage of bpred unit_cc2
window_power_cc2       1486611.7652 # total power usage of instruction window_cc2
lsq_power_cc2           316719.4314 # total power usage of lsq_cc2
regfile_power_cc2      1555440.5810 # total power usage of arch. regfile_cc2
icache_power_cc2       4058766.2675 # total power usage of icache_cc2
dcache_power_cc2       8618395.5406 # total power usage of dcache_cc2
dcache2_power_cc2       519526.5461 # total power usage of dcache2_cc2
alu_power_cc2          4201090.8447 # total power usage of alu_cc2
resultbus_power_cc2    1522240.5655 # total power usage of resultbus_cc2
clock_power_cc2        11148164.6652 # total power usage of clock_cc2
avg_rename_power_cc2         0.1407 # avg power usage of rename unit_cc2
avg_bpred_power_cc2          0.3504 # avg power usage of bpred unit_cc2
avg_window_power_cc2         0.6687 # avg power usage of instruction window_cc2
avg_lsq_power_cc2            0.1425 # avg power usage of instruction lsq_cc2
avg_regfile_power_cc2        0.6997 # avg power usage of arch. regfile_cc2
avg_icache_power_cc2         1.8257 # avg power usage of icache_cc2
avg_dcache_power_cc2         3.8767 # avg power usage of dcache_cc2
avg_dcache2_power_cc2        0.2337 # avg power usage of dcache2_cc2
avg_alu_power_cc2            1.8897 # avg power usage of alu_cc2
avg_resultbus_power_cc2       0.6847 # avg power usage of resultbus_cc2
avg_clock_power_cc2          5.0146 # avg power usage of clock_cc2
fetch_stage_power_cc2  4837775.8012 # total power usage of fetch stage_cc2
dispatch_stage_power_cc2  312851.5566 # total power usage of dispatch stage_cc2
issue_stage_power_cc2  16664584.6936 # total power usage of issue stage_cc2
avg_fetch_power_cc2          2.1761 # average power of fetch unit per cycle_cc2
avg_dispatch_power_cc2       0.1407 # average power of dispatch unit per cycle_cc2
avg_issue_power_cc2          7.4959 # average power of issue unit per cycle_cc2
total_power_cycle_cc2  34518817.2976 # total power per cycle_cc2
avg_total_power_cycle_cc2      15.5270 # average total power per cycle_cc2
avg_total_power_insn_cc2       9.6959 # average total power per insn_cc2
rename_power_cc3        334406.0642 # total power usage of rename unit_cc3
bpred_power_cc3        1656376.7673 # total power usage of bpred unit_cc3
window_power_cc3       1538381.9400 # total power usage of instruction window_cc3
lsq_power_cc3           463186.6065 # total power usage of lsq_cc3
regfile_power_cc3      1765712.3594 # total power usage of arch. regfile_cc3
icache_power_cc3       4203551.1905 # total power usage of icache_cc3
dcache_power_cc3       9457412.8235 # total power usage of dcache_cc3
dcache2_power_cc3      1400212.4224 # total power usage of dcache2_cc3
alu_power_cc3          7572423.3036 # total power usage of alu_cc3
resultbus_power_cc3    1627540.8110 # total power usage of resultbus_cc3
clock_power_cc3        15247578.2079 # total power usage of clock_cc3
avg_rename_power_cc3         0.1504 # avg power usage of rename unit_cc3
avg_bpred_power_cc3          0.7451 # avg power usage of bpred unit_cc3
avg_window_power_cc3         0.6920 # avg power usage of instruction window_cc3
avg_lsq_power_cc3            0.2083 # avg power usage of instruction lsq_cc3
avg_regfile_power_cc3        0.7942 # avg power usage of arch. regfile_cc3
avg_icache_power_cc3         1.8908 # avg power usage of icache_cc3
avg_dcache_power_cc3         4.2541 # avg power usage of dcache_cc3
avg_dcache2_power_cc3        0.6298 # avg power usage of dcache2_cc3
avg_alu_power_cc3            3.4062 # avg power usage of alu_cc3
avg_resultbus_power_cc3       0.7321 # avg power usage of resultbus_cc3
avg_clock_power_cc3          6.8585 # avg power usage of clock_cc3
fetch_stage_power_cc3  5859927.9579 # total power usage of fetch stage_cc3
dispatch_stage_power_cc3  334406.0642 # total power usage of dispatch stage_cc3
issue_stage_power_cc3  22059157.9071 # total power usage of issue stage_cc3
avg_fetch_power_cc3          2.6359 # average power of fetch unit per cycle_cc3
avg_dispatch_power_cc3       0.1504 # average power of dispatch unit per cycle_cc3
avg_issue_power_cc3          9.9225 # average power of issue unit per cycle_cc3
total_power_cycle_cc3  45266782.4965 # total power per cycle_cc3
avg_total_power_cycle_cc3      20.3615 # average total power per cycle_cc3
avg_total_power_insn_cc3      12.7149 # average total power per insn_cc3
total_rename_access         3559840 # total number accesses of rename unit
total_bpred_access           338527 # total number accesses of bpred unit
total_window_access        13475494 # total number accesses of instruction window
total_lsq_access            2156404 # total number accesses of load/store queue
total_regfile_access        7769880 # total number accesses of arch. regfile
total_icache_access         3608706 # total number accesses of icache
total_dcache_access         2154460 # total number accesses of dcache
total_dcache2_access         246859 # total number accesses of dcache2
total_alu_access            3501422 # total number accesses of alu
total_resultbus_access      3463395 # total number accesses of resultbus
avg_rename_access            1.6013 # avg number accesses of rename unit
avg_bpred_access             0.1523 # avg number accesses of bpred unit
avg_window_access            6.0614 # avg number accesses of instruction window
avg_lsq_access               0.9700 # avg number accesses of lsq
avg_regfile_access           3.4950 # avg number accesses of arch. regfile
avg_icache_access            1.6232 # avg number accesses of icache
avg_dcache_access            0.9691 # avg number accesses of dcache
avg_dcache2_access           0.1110 # avg number accesses of dcache2
avg_alu_access               1.5750 # avg number accesses of alu
avg_resultbus_access         1.5579 # avg number accesses of resultbus
max_rename_access                 4 # max number accesses of rename unit
max_bpred_access                  3 # max number accesses of bpred unit
max_window_access                14 # max number accesses of instruction window
max_lsq_access                    5 # max number accesses of load/store queue
max_regfile_access               12 # max number accesses of arch. regfile
max_icache_access                 4 # max number accesses of icache
max_dcache_access                 4 # max number accesses of dcache
max_dcache2_access                4 # max number accesses of dcache2
max_alu_access                    4 # max number accesses of alu
max_resultbus_access              5 # max number accesses of resultbus
max_cycle_power_cc1         43.7422 # maximum cycle power usage of cc1
max_cycle_power_cc2         31.8869 # maximum cycle power usage of cc2
max_cycle_power_cc3         35.4333 # maximum cycle power usage of cc3
sim_invalid_addrs                 0 # total non-speculative bogus addresses seen (debug var)
ld_text_base             0x00400000 # program text (code) segment base
ld_text_size                 103840 # program text (code) size in bytes
ld_data_base             0x10000000 # program initialized data segment base
ld_data_size               44123012 # program init'ed `.data' and uninit'ed `.bss' size in bytes
ld_stack_base            0x7fffc000 # program stack segment base (highest address in stack)
ld_stack_size                 16384 # program initial stack size
ld_prog_entry            0x00400140 # program entry point (initial PC)
ld_environ_base          0x7fff8000 # program environment base address address
ld_target_big_endian              0 # target executable endian-ness, non-zero if big endian
mem.page_count                  167 # total number of pages allocated
mem.page_mem                   668k # total size of memory pages allocated
mem.ptab_misses                 167 # total first level page table misses
mem.ptab_accesses          32424272 # total page table accesses
mem.ptab_miss_rate           0.0000 # first level page table miss rate

