sim-outorder: SimpleScalar/PISA Tool Set version 3.0 of August, 2003.
Copyright (c) 1994-2003 by Todd M. Austin, Ph.D. and SimpleScalar, LLC.
All Rights Reserved. This version of SimpleScalar is licensed for academic
non-commercial use.  No portion of this work may be used by any commercial
entity, or for any commercial purpose, without the prior written permission
of SimpleScalar, LLC (info@simplescalar.com).


Processor Parameters:
Issue Width: 4
Window Size: 4
Number of Virtual Registers: 32
Number of Physical Registers: 4
Datapath Width: 64
Total Power Consumption: 74.4515
Branch Predictor Power Consumption: 4.49376  (6.2%)
 branch target buffer power (W): 4.16837
 local predict power (W): 0.0879711
 global predict power (W): 0.0702439
 chooser power (W): 0.0702439
 RAS power (W): 0.0969383
Rename Logic Power Consumption: 0.281539  (0.389%)
 Instruction Decode Power (W): 0.0159915
 RAT decode_power (W): 0.113514
 RAT wordline_power (W): 0.0177401
 RAT bitline_power (W): 0.123385
 DCL Comparators (W): 0.0109075
Instruction Window Power Consumption: 0.971935  (1.34%)
 tagdrive (W): 0.0229717
 tagmatch (W): 0.00512386
 Selection Logic (W): 0.00268434
 decode_power (W): 0.0114039
 wordline_power (W): 0.0844643
 bitline_power (W): 0.845287
Load/Store Queue Power Consumption: 0.801271  (1.11%)
 tagdrive (W): 0.457232
 tagmatch (W): 0.100774
 decode_power (W): 0.00799577
 wordline_power (W): 0.0150119
 bitline_power (W): 0.220258
Arch. Register File Power Consumption: 3.57247  (4.93%)
 decode_power (W): 0.113514
 wordline_power (W): 0.0844643
 bitline_power (W): 3.37449
Result Bus Power Consumption: 1.92837  (2.66%)
Total Clock Power: 25.5272  (35.2%)
Int ALU Power: 4.66013  (6.43%)
FP ALU Power: 14.281  (19.7%)
Instruction Cache Power Consumption: 2.21363  (3.06%)
 decode_power (W): 0.779481
 wordline_power (W): 0.028656
 bitline_power (W): 0.886372
 senseamp_power (W): 0.096
 tagarray_power (W): 0.423116
Itlb_power (W): 0.263317 (0.363%)
Data Cache Power Consumption: 8.34726  (11.5%)
 decode_power (W): 1.44978
 wordline_power (W): 0.196735
 bitline_power (W): 4.58765
 senseamp_power (W): 0.768
 tagarray_power (W): 1.34509
Dtlb_power (W): 0.900515 (1.24%)
Level 2 Cache Power Consumption: 4.2091 (5.81%)
 decode_power (W): 0.41817
 wordline_power (W): 0.0430878
 bitline_power (W): 3.0244
 senseamp_power (W): 0.192
 tagarray_power (W): 0.531433
sim: command line: /home/passionguan/Downloads/Computer_Architecture_Course/Homework_3/hw3_simplescalar_archive/sim-wattch-1.02e/sim-outorder -config ruu_size_4.cfg ./compress.ss 

sim: simulation started @ Mon Oct 17 02:33:28 2016, options follow:

sim-outorder: This simulator implements a very detailed out-of-order issue
superscalar processor with a two-level memory system and speculative
execution support.  This simulator is a performance simulator, tracking the
latency of all pipeline operations.

# -config                     # load configuration from a file
# -dumpconfig                 # dump configuration to a file
# -h                    false # print help message    
# -v                    false # verbose operation     
# -d                    false # enable debug message  
# -i                    false # start in Dlite debugger
-seed                       1 # random number generator seed (0 for timer seed)
# -q                    false # initialize and terminate immediately
# -chkpt               <null> # restore EIO trace execution from <fname>
# -redir:sim           <null> # redirect simulator output to file (non-interactive only)
# -redir:prog          <null> # redirect simulated program output to file
-nice                       0 # simulator scheduling priority
-max:inst                   0 # maximum number of inst's to execute
-fastfwd                    0 # number of insts skipped before timing starts
# -ptrace              <null> # generate pipetrace, i.e., <fname|stdout|stderr> <range>
-fetch:ifqsize              4 # instruction fetch queue size (in insts)
-fetch:mplat                3 # extra branch mis-prediction latency
-fetch:speed                1 # speed of front-end of machine relative to execution core
-bpred                  bimod # branch predictor type {nottaken|taken|perfect|bimod|2lev|comb}
-bpred:bimod     1024 # bimodal predictor config (<table size>)
-bpred:2lev      1 1024 8 0 # 2-level predictor config (<l1size> <l2size> <hist_size> <xor>)
-bpred:comb      1024 # combining predictor config (<meta_table_size>)
-bpred:ras                  8 # return address stack size (0 for no return stack)
-bpred:btb       512 4 # BTB config (<num_sets> <associativity>)
# -bpred:spec_update       <null> # speculative predictors update in {ID|WB} (default non-spec)
-decode:width               4 # instruction decode B/W (insts/cycle)
-issue:width                4 # instruction issue B/W (insts/cycle)
-issue:inorder          false # run pipeline with in-order issue
-issue:wrongpath         true # issue instructions down wrong execution paths
-commit:width               4 # instruction commit B/W (insts/cycle)
-ruu:size                   4 # register update unit (RUU) size
-lsq:size                   8 # load/store queue (LSQ) size
-cache:dl1       dl1:256:32:4:l # l1 data cache config, i.e., {<config>|none}
-cache:dl1lat               1 # l1 data cache hit latency (in cycles)
-cache:dl2       ul2:1024:64:4:l # l2 data cache config, i.e., {<config>|none}
-cache:dl2lat               6 # l2 data cache hit latency (in cycles)
-cache:il1       il1:512:32:1:l # l1 inst cache config, i.e., {<config>|dl1|dl2|none}
-cache:il1lat               1 # l1 instruction cache hit latency (in cycles)
-cache:il2                dl2 # l2 instruction cache config, i.e., {<config>|dl2|none}
-cache:il2lat               6 # l2 instruction cache hit latency (in cycles)
-cache:flush            false # flush caches on system calls
-cache:icompress        false # convert 64-bit inst addresses to 32-bit inst equivalents
-mem:lat         18 2 # memory access latency (<first_chunk> <inter_chunk>)
-mem:width                  8 # memory access bus width (in bytes)
-tlb:itlb        itlb:16:4096:4:l # instruction TLB config, i.e., {<config>|none}
-tlb:dtlb        dtlb:32:4096:4:l # data TLB config, i.e., {<config>|none}
-tlb:lat                   30 # inst/data TLB miss latency (in cycles)
-res:ialu                   4 # total number of integer ALU's available
-res:imult                  1 # total number of integer multiplier/dividers available
-res:memport                2 # total number of memory system ports available (to CPU)
-res:fpalu                  4 # total number of floating point ALU's available
-res:fpmult                 1 # total number of floating point multiplier/dividers available
# -pcstat              <null> # profile stat(s) against text addr's (mult uses ok)
-bugcompat              false # operate in backward-compatible bugs mode (for testing only)

  Pipetrace range arguments are formatted as follows:

    {{@|#}<start>}:{{@|#|+}<end>}

  Both ends of the range are optional, if neither are specified, the entire
  execution is traced.  Ranges that start with a `@' designate an address
  range to be traced, those that start with an `#' designate a cycle count
  range.  All other range values represent an instruction count range.  The
  second argument, if specified with a `+', indicates a value relative
  to the first argument, e.g., 1000:+100 == 1000:1100.  Program symbols may
  be used in all contexts.

    Examples:   -ptrace FOO.trc #0:#1000
                -ptrace BAR.trc @2000:
                -ptrace BLAH.trc :1500
                -ptrace UXXE.trc :
                -ptrace FOOBAR.trc @main:+278

  Branch predictor configuration examples for 2-level predictor:
    Configurations:   N, M, W, X
      N   # entries in first level (# of shift register(s))
      W   width of shift register(s)
      M   # entries in 2nd level (# of counters, or other FSM)
      X   (yes-1/no-0) xor history and address for 2nd level index
    Sample predictors:
      GAg     : 1, W, 2^W, 0
      GAp     : 1, W, M (M > 2^W), 0
      PAg     : N, W, 2^W, 0
      PAp     : N, W, M (M == 2^(N+W)), 0
      gshare  : 1, W, 2^W, 1
  Predictor `comb' combines a bimodal and a 2-level predictor.

  The cache config parameter <config> has the following format:

    <name>:<nsets>:<bsize>:<assoc>:<repl>

    <name>   - name of the cache being defined
    <nsets>  - number of sets in the cache
    <bsize>  - block size of the cache
    <assoc>  - associativity of the cache
    <repl>   - block replacement strategy, 'l'-LRU, 'f'-FIFO, 'r'-random

    Examples:   -cache:dl1 dl1:4096:32:1:l
                -dtlb dtlb:128:4096:32:r

  Cache levels can be unified by pointing a level of the instruction cache
  hierarchy at the data cache hiearchy using the "dl1" and "dl2" cache
  configuration arguments.  Most sensible combinations are supported, e.g.,

    A unified l2 cache (il2 is pointed at dl2):
      -cache:il1 il1:128:64:1:l -cache:il2 dl2
      -cache:dl1 dl1:256:32:1:l -cache:dl2 ul2:1024:64:2:l

    Or, a fully unified cache hierarchy (il1 pointed at dl1):
      -cache:il1 dl1
      -cache:dl1 ul1:256:32:1:l -cache:dl2 ul2:1024:64:2:l



sim: ** starting performance simulation **

sim: ** simulation statistics **
sim_num_insn                3520493 # total number of instructions committed
sim_num_refs                2152774 # total number of loads and stores committed
sim_num_loads                264260 # total number of loads committed
sim_num_stores         1888514.0000 # total number of stores committed
sim_num_branches             338527 # total number of branches committed
sim_elapsed_time                  2 # total simulation time in seconds
sim_inst_rate          1760246.5000 # simulation speed (in insts/sec)
sim_total_insn              3539743 # total number of instructions executed
sim_total_refs              2160198 # total number of loads and stores executed
sim_total_loads              271201 # total number of loads executed
sim_total_stores       1888997.0000 # total number of stores executed
sim_total_branches           340715 # total number of branches executed
sim_cycle                   3303176 # total simulation time in cycles
sim_IPC                      1.0658 # instructions per cycle
sim_CPI                      0.9383 # cycles per instruction
sim_exec_BW                  1.0716 # total instructions (mis-spec + committed) per cycle
sim_IPB                     10.3994 # instruction per branch
IFQ_count                  12251823 # cumulative IFQ occupancy
IFQ_fcount                  3014698 # cumulative IFQ full count
ifq_occupancy                3.7091 # avg IFQ occupancy (insn's)
ifq_rate                     1.0716 # avg IFQ dispatch rate (insn/cycle)
ifq_latency                  3.4612 # avg IFQ occupant latency (cycle's)
ifq_full                     0.9127 # fraction of time (cycle's) IFQ was full
RUU_count                  12442771 # cumulative RUU occupancy
RUU_fcount                  3088906 # cumulative RUU full count
ruu_occupancy                3.7669 # avg RUU occupancy (insn's)
ruu_rate                     1.0716 # avg RUU dispatch rate (insn/cycle)
ruu_latency                  3.5152 # avg RUU occupant latency (cycle's)
ruu_full                     0.9351 # fraction of time (cycle's) RUU was full
LSQ_count                   6917418 # cumulative LSQ occupancy
LSQ_fcount                        0 # cumulative LSQ full count
lsq_occupancy                2.0942 # avg LSQ occupancy (insn's)
lsq_rate                     1.0716 # avg LSQ dispatch rate (insn/cycle)
lsq_latency                  1.9542 # avg LSQ occupant latency (cycle's)
lsq_full                     0.0000 # fraction of time (cycle's) LSQ was full
sim_slip                   24987602 # total number of slip cycles
avg_sim_slip                 7.0978 # the average slip between issue and retirement
bpred_bimod.lookups          348433 # total number of bpred lookups
bpred_bimod.updates          338527 # total number of updates
bpred_bimod.addr_hits        327745 # total number of address-predicted hits
bpred_bimod.dir_hits         328064 # total number of direction-predicted hits (includes addr-hits)
bpred_bimod.misses            10463 # total number of misses
bpred_bimod.jr_hits           23850 # total number of address-predicted hits for JR's
bpred_bimod.jr_seen           23986 # total number of JR's seen
bpred_bimod.jr_non_ras_hits.PP           63 # total number of address-predicted hits for non-RAS JR's
bpred_bimod.jr_non_ras_seen.PP          188 # total number of non-RAS JR's seen
bpred_bimod.bpred_addr_rate    0.9682 # branch address-prediction rate (i.e., addr-hits/updates)
bpred_bimod.bpred_dir_rate    0.9691 # branch direction-prediction rate (i.e., all-hits/updates)
bpred_bimod.bpred_jr_rate    0.9943 # JR address-prediction rate (i.e., JR addr-hits/JRs seen)
bpred_bimod.bpred_jr_non_ras_rate.PP    0.3351 # non-RAS JR addr-pred rate (ie, non-RAS JR hits/JRs seen)
bpred_bimod.retstack_pushes        26007 # total number of address pushed onto ret-addr stack
bpred_bimod.retstack_pops        24051 # total number of address popped off of ret-addr stack
bpred_bimod.used_ras.PP        23798 # total number of RAS predictions used
bpred_bimod.ras_hits.PP        23787 # total number of RAS hits
bpred_bimod.ras_rate.PP    0.9995 # RAS prediction rate (i.e., RAS hits/used RAS)
il1.accesses                3589616 # total number of accesses
il1.hits                    3576805 # total number of hits
il1.misses                    12811 # total number of misses
il1.replacements              12350 # total number of replacements
il1.writebacks                    0 # total number of writebacks
il1.invalidations                 0 # total number of invalidations
il1.miss_rate                0.0036 # miss rate (i.e., misses/ref)
il1.repl_rate                0.0034 # replacement rate (i.e., repls/ref)
il1.wb_rate                  0.0000 # writeback rate (i.e., wrbks/ref)
il1.inv_rate                 0.0000 # invalidation rate (i.e., invs/ref)
dl1.accesses                2153051 # total number of accesses
dl1.hits                    1920575 # total number of hits
dl1.misses                   232476 # total number of misses
dl1.replacements             231452 # total number of replacements
dl1.writebacks               228501 # total number of writebacks
dl1.invalidations                 0 # total number of invalidations
dl1.miss_rate                0.1080 # miss rate (i.e., misses/ref)
dl1.repl_rate                0.1075 # replacement rate (i.e., repls/ref)
dl1.wb_rate                  0.1061 # writeback rate (i.e., wrbks/ref)
dl1.inv_rate                 0.0000 # invalidation rate (i.e., invs/ref)
ul2.accesses                 473788 # total number of accesses
ul2.hits                     413677 # total number of hits
ul2.misses                    60111 # total number of misses
ul2.replacements              56015 # total number of replacements
ul2.writebacks                50153 # total number of writebacks
ul2.invalidations                 0 # total number of invalidations
ul2.miss_rate                0.1269 # miss rate (i.e., misses/ref)
ul2.repl_rate                0.1182 # replacement rate (i.e., repls/ref)
ul2.wb_rate                  0.1059 # writeback rate (i.e., wrbks/ref)
ul2.inv_rate                 0.0000 # invalidation rate (i.e., invs/ref)
itlb.accesses               3589616 # total number of accesses
itlb.hits                   3589596 # total number of hits
itlb.misses                      20 # total number of misses
itlb.replacements                 0 # total number of replacements
itlb.writebacks                   0 # total number of writebacks
itlb.invalidations                0 # total number of invalidations
itlb.miss_rate               0.0000 # miss rate (i.e., misses/ref)
itlb.repl_rate               0.0000 # replacement rate (i.e., repls/ref)
itlb.wb_rate                 0.0000 # writeback rate (i.e., wrbks/ref)
itlb.inv_rate                0.0000 # invalidation rate (i.e., invs/ref)
dtlb.accesses               2153055 # total number of accesses
dtlb.hits                   2152841 # total number of hits
dtlb.misses                     214 # total number of misses
dtlb.replacements                87 # total number of replacements
dtlb.writebacks                   0 # total number of writebacks
dtlb.invalidations                0 # total number of invalidations
dtlb.miss_rate               0.0001 # miss rate (i.e., misses/ref)
dtlb.repl_rate               0.0000 # replacement rate (i.e., repls/ref)
dtlb.wb_rate                 0.0000 # writeback rate (i.e., wrbks/ref)
dtlb.inv_rate                0.0000 # invalidation rate (i.e., invs/ref)
rename_power            929972.3533 # total power usage of rename unit
bpred_power            14843688.3538 # total power usage of bpred unit
window_power           3210472.5213 # total power usage of instruction window
lsq_power              2646740.3111 # total power usage of load/store queue
regfile_power          11800504.1189 # total power usage of arch. regfile
icache_power           8181774.4965 # total power usage of icache
dcache_power           30547029.7120 # total power usage of dcache
dcache2_power          13903383.0540 # total power usage of dcache2
alu_power              62566035.9974 # total power usage of alu
falu_power             47172804.9182 # total power usage of falu
resultbus_power        6369758.8818 # total power usage of resultbus
clock_power            84320749.8017 # total power usage of clock
avg_rename_power             0.2815 # avg power usage of rename unit
avg_bpred_power              4.4938 # avg power usage of bpred unit
avg_window_power             0.9719 # avg power usage of instruction window
avg_lsq_power                0.8013 # avg power usage of lsq
avg_regfile_power            3.5725 # avg power usage of arch. regfile
avg_icache_power             2.4769 # avg power usage of icache
avg_dcache_power             9.2478 # avg power usage of dcache
avg_dcache2_power            4.2091 # avg power usage of dcache2
avg_alu_power               18.9412 # avg power usage of alu
avg_falu_power              14.2810 # avg power usage of falu
avg_resultbus_power          1.9284 # avg power usage of resultbus
avg_clock_power             25.5272 # avg power usage of clock
fetch_stage_power      23025462.8503 # total power usage of fetch stage
dispatch_stage_power    929972.3533 # total power usage of dispatch stage
issue_stage_power      119243420.4776 # total power usage of issue stage
avg_fetch_power              6.9707 # average power of fetch unit per cycle
avg_dispatch_power           0.2815 # average power of dispatch unit per cycle
avg_issue_power             36.0996 # average power of issue unit per cycle
total_power            239320109.6018 # total power per cycle
avg_total_power_cycle       72.4515 # average total power per cycle
avg_total_power_cycle_nofp_nod2      53.9614 # average total power per cycle
avg_total_power_insn        67.6095 # average total power per insn
avg_total_power_insn_nofp_nod2      50.3550 # average total power per insn
rename_power_cc1        693662.1613 # total power usage of rename unit_cc1
bpred_power_cc1        1474412.4552 # total power usage of bpred unit_cc1
window_power_cc1       2157193.5166 # total power usage of instruction window_cc1
lsq_power_cc1           430822.1874 # total power usage of lsq_cc1
regfile_power_cc1      6119666.8400 # total power usage of arch. regfile_cc1
icache_power_cc1       6220465.1522 # total power usage of icache_cc1
dcache_power_cc1       15305581.5172 # total power usage of dcache_cc1
dcache2_power_cc1      1032284.8668 # total power usage of dcache2_cc1
alu_power_cc1          12316191.7366 # total power usage of alu_cc1
resultbus_power_cc1    3898260.8969 # total power usage of resultbus_cc1
clock_power_cc1        24093314.3617 # total power usage of clock_cc1
avg_rename_power_cc1         0.2100 # avg power usage of rename unit_cc1
avg_bpred_power_cc1          0.4464 # avg power usage of bpred unit_cc1
avg_window_power_cc1         0.6531 # avg power usage of instruction window_cc1
avg_lsq_power_cc1            0.1304 # avg power usage of lsq_cc1
avg_regfile_power_cc1        1.8527 # avg power usage of arch. regfile_cc1
avg_icache_power_cc1         1.8832 # avg power usage of icache_cc1
avg_dcache_power_cc1         4.6336 # avg power usage of dcache_cc1
avg_dcache2_power_cc1        0.3125 # avg power usage of dcache2_cc1
avg_alu_power_cc1            3.7286 # avg power usage of alu_cc1
avg_resultbus_power_cc1       1.1802 # avg power usage of resultbus_cc1
avg_clock_power_cc1          7.2940 # avg power usage of clock_cc1
fetch_stage_power_cc1  7694877.6073 # total power usage of fetch stage_cc1
dispatch_stage_power_cc1  693662.1613 # total power usage of dispatch stage_cc1
issue_stage_power_cc1  35140334.7216 # total power usage of issue stage_cc1
avg_fetch_power_cc1          2.3295 # average power of fetch unit per cycle_cc1
avg_dispatch_power_cc1       0.2100 # average power of dispatch unit per cycle_cc1
avg_issue_power_cc1         10.6383 # average power of issue unit per cycle_cc1
total_power_cycle_cc1  73741855.6920 # total power per cycle_cc1
avg_total_power_cycle_cc1      22.3245 # average total power per cycle_cc1
avg_total_power_insn_cc1      20.8325 # average total power per insn_cc1
rename_power_cc2        249125.0659 # total power usage of rename unit_cc2
bpred_power_cc2         760629.9645 # total power usage of bpred unit_cc2
window_power_cc2       1058760.7939 # total power usage of instruction window_cc2
lsq_power_cc2           272539.0421 # total power usage of lsq_cc2
regfile_power_cc2      1604472.5622 # total power usage of arch. regfile_cc2
icache_power_cc2       6220465.1522 # total power usage of icache_cc2
dcache_power_cc2       9955466.0225 # total power usage of dcache_cc2
dcache2_power_cc2       997109.4562 # total power usage of dcache2_cc2
alu_power_cc2          4190510.0185 # total power usage of alu_cc2
resultbus_power_cc2    1355172.4945 # total power usage of resultbus_cc2
clock_power_cc2        12299380.5071 # total power usage of clock_cc2
avg_rename_power_cc2         0.0754 # avg power usage of rename unit_cc2
avg_bpred_power_cc2          0.2303 # avg power usage of bpred unit_cc2
avg_window_power_cc2         0.3205 # avg power usage of instruction window_cc2
avg_lsq_power_cc2            0.0825 # avg power usage of instruction lsq_cc2
avg_regfile_power_cc2        0.4857 # avg power usage of arch. regfile_cc2
avg_icache_power_cc2         1.8832 # avg power usage of icache_cc2
avg_dcache_power_cc2         3.0139 # avg power usage of dcache_cc2
avg_dcache2_power_cc2        0.3019 # avg power usage of dcache2_cc2
avg_alu_power_cc2            1.2686 # avg power usage of alu_cc2
avg_resultbus_power_cc2       0.4103 # avg power usage of resultbus_cc2
avg_clock_power_cc2          3.7235 # avg power usage of clock_cc2
fetch_stage_power_cc2  6981095.1166 # total power usage of fetch stage_cc2
dispatch_stage_power_cc2  249125.0659 # total power usage of dispatch stage_cc2
issue_stage_power_cc2  17829557.8279 # total power usage of issue stage_cc2
avg_fetch_power_cc2          2.1134 # average power of fetch unit per cycle_cc2
avg_dispatch_power_cc2       0.0754 # average power of dispatch unit per cycle_cc2
avg_issue_power_cc2          5.3977 # average power of issue unit per cycle_cc2
total_power_cycle_cc2  38963631.0797 # total power per cycle_cc2
avg_total_power_cycle_cc2      11.7958 # average total power per cycle_cc2
avg_total_power_insn_cc2      11.0075 # average total power per insn_cc2
rename_power_cc3        272756.0851 # total power usage of rename unit_cc3
bpred_power_cc3        2097563.8455 # total power usage of bpred unit_cc3
window_power_cc3       1098999.0413 # total power usage of instruction window_cc3
lsq_power_cc3           489398.6950 # total power usage of lsq_cc3
regfile_power_cc3      1904495.9145 # total power usage of arch. regfile_cc3
icache_power_cc3       6416596.0867 # total power usage of icache_cc3
dcache_power_cc3       11479683.4372 # total power usage of dcache_cc3
dcache2_power_cc3      2284244.5295 # total power usage of dcache2_cc3
alu_power_cc3          9215494.4447 # total power usage of alu_cc3
resultbus_power_cc3    1513269.0840 # total power usage of resultbus_cc3
clock_power_cc3        18139066.0452 # total power usage of clock_cc3
avg_rename_power_cc3         0.0826 # avg power usage of rename unit_cc3
avg_bpred_power_cc3          0.6350 # avg power usage of bpred unit_cc3
avg_window_power_cc3         0.3327 # avg power usage of instruction window_cc3
avg_lsq_power_cc3            0.1482 # avg power usage of instruction lsq_cc3
avg_regfile_power_cc3        0.5766 # avg power usage of arch. regfile_cc3
avg_icache_power_cc3         1.9426 # avg power usage of icache_cc3
avg_dcache_power_cc3         3.4753 # avg power usage of dcache_cc3
avg_dcache2_power_cc3        0.6915 # avg power usage of dcache2_cc3
avg_alu_power_cc3            2.7899 # avg power usage of alu_cc3
avg_resultbus_power_cc3       0.4581 # avg power usage of resultbus_cc3
avg_clock_power_cc3          5.4914 # avg power usage of clock_cc3
fetch_stage_power_cc3  8514159.9321 # total power usage of fetch stage_cc3
dispatch_stage_power_cc3  272756.0851 # total power usage of dispatch stage_cc3
issue_stage_power_cc3  26081089.2318 # total power usage of issue stage_cc3
avg_fetch_power_cc3          2.5776 # average power of fetch unit per cycle_cc3
avg_dispatch_power_cc3       0.0826 # average power of dispatch unit per cycle_cc3
avg_issue_power_cc3          7.8958 # average power of issue unit per cycle_cc3
total_power_cycle_cc3  54911567.2087 # total power per cycle_cc3
avg_total_power_cycle_cc3      16.6239 # average total power per cycle_cc3
avg_total_power_insn_cc3      15.5129 # average total power per insn_cc3
total_rename_access         3539477 # total number accesses of rename unit
total_bpred_access           338527 # total number accesses of bpred unit
total_window_access        13770049 # total number accesses of instruction window
total_lsq_access            2153061 # total number accesses of load/store queue
total_regfile_access        8148068 # total number accesses of arch. regfile
total_icache_access         3590414 # total number accesses of icache
total_dcache_access         2153051 # total number accesses of dcache
total_dcache2_access         473788 # total number accesses of dcache2
total_alu_access            3492340 # total number accesses of alu
total_resultbus_access      3454571 # total number accesses of resultbus
avg_rename_access            1.0715 # avg number accesses of rename unit
avg_bpred_access             0.1025 # avg number accesses of bpred unit
avg_window_access            4.1687 # avg number accesses of instruction window
avg_lsq_access               0.6518 # avg number accesses of lsq
avg_regfile_access           2.4667 # avg number accesses of arch. regfile
avg_icache_access            1.0870 # avg number accesses of icache
avg_dcache_access            0.6518 # avg number accesses of dcache
avg_dcache2_access           0.1434 # avg number accesses of dcache2
avg_alu_access               1.0573 # avg number accesses of alu
avg_resultbus_access         1.0458 # avg number accesses of resultbus
max_rename_access                 4 # max number accesses of rename unit
max_bpred_access                  3 # max number accesses of bpred unit
max_window_access                 8 # max number accesses of instruction window
max_lsq_access                    5 # max number accesses of load/store queue
max_regfile_access               12 # max number accesses of arch. regfile
max_icache_access                 4 # max number accesses of icache
max_dcache_access                 3 # max number accesses of dcache
max_dcache2_access                4 # max number accesses of dcache2
max_alu_access                    4 # max number accesses of alu
max_resultbus_access              4 # max number accesses of resultbus
max_cycle_power_cc1         36.3435 # maximum cycle power usage of cc1
max_cycle_power_cc2         24.0066 # maximum cycle power usage of cc2
max_cycle_power_cc3         27.9459 # maximum cycle power usage of cc3
sim_invalid_addrs                 0 # total non-speculative bogus addresses seen (debug var)
ld_text_base             0x00400000 # program text (code) segment base
ld_text_size                 103840 # program text (code) size in bytes
ld_data_base             0x10000000 # program initialized data segment base
ld_data_size               44123012 # program init'ed `.data' and uninit'ed `.bss' size in bytes
ld_stack_base            0x7fffc000 # program stack segment base (highest address in stack)
ld_stack_size                 16384 # program initial stack size
ld_prog_entry            0x00400140 # program entry point (initial PC)
ld_environ_base          0x7fff8000 # program environment base address address
ld_target_big_endian              0 # target executable endian-ness, non-zero if big endian
mem.page_count                  167 # total number of pages allocated
mem.page_mem                   668k # total size of memory pages allocated
mem.ptab_misses                 167 # total first level page table misses
mem.ptab_accesses          32338554 # total page table accesses
mem.ptab_miss_rate           0.0000 # first level page table miss rate

