sim-outorder: SimpleScalar/PISA Tool Set version 3.0 of August, 2003.
Copyright (c) 1994-2003 by Todd M. Austin, Ph.D. and SimpleScalar, LLC.
All Rights Reserved. This version of SimpleScalar is licensed for academic
non-commercial use.  No portion of this work may be used by any commercial
entity, or for any commercial purpose, without the prior written permission
of SimpleScalar, LLC (info@simplescalar.com).


Processor Parameters:
Issue Width: 4
Window Size: 8
Number of Virtual Registers: 32
Number of Physical Registers: 8
Datapath Width: 64
Total Power Consumption: 71.5115
Branch Predictor Power Consumption: 4.60235  (6.62%)
 branch target buffer power (W): 4.16837
 local predict power (W): 0.0879711
 global predict power (W): 0.178829
 chooser power (W): 0.0702439
 RAS power (W): 0.0969383
Rename Logic Power Consumption: 0.351534  (0.506%)
 Instruction Decode Power (W): 0.0159915
 RAT decode_power (W): 0.113514
 RAT wordline_power (W): 0.0260431
 RAT bitline_power (W): 0.185078
 DCL Comparators (W): 0.0109075
Instruction Window Power Consumption: 1.38003  (1.99%)
 tagdrive (W): 0.0465589
 tagmatch (W): 0.0135476
 Selection Logic (W): 0.00805301
 decode_power (W): 0.0239873
 wordline_power (W): 0.0844643
 bitline_power (W): 1.20342
Load/Store Queue Power Consumption: 0.855275  (1.23%)
 tagdrive (W): 0.457232
 tagmatch (W): 0.100774
 decode_power (W): 0.00799577
 wordline_power (W): 0.0150119
 bitline_power (W): 0.274261
Arch. Register File Power Consumption: 3.57247  (5.14%)
 decode_power (W): 0.113514
 wordline_power (W): 0.0844643
 bitline_power (W): 3.37449
Result Bus Power Consumption: 1.13188  (1.63%)
Total Clock Power: 25.0731  (36.1%)
Int ALU Power: 2.33007  (3.35%)
FP ALU Power: 14.281  (20.5%)
Instruction Cache Power Consumption: 2.21363  (3.18%)
 decode_power (W): 0.779481
 wordline_power (W): 0.028656
 bitline_power (W): 0.886372
 senseamp_power (W): 0.096
 tagarray_power (W): 0.423116
Itlb_power (W): 0.263317 (0.379%)
Data Cache Power Consumption: 8.34726  (12%)
 decode_power (W): 1.44978
 wordline_power (W): 0.196735
 bitline_power (W): 4.58765
 senseamp_power (W): 0.768
 tagarray_power (W): 1.34509
Dtlb_power (W): 0.900515 (1.3%)
Level 2 Cache Power Consumption: 4.2091 (6.06%)
 decode_power (W): 0.41817
 wordline_power (W): 0.0430878
 bitline_power (W): 3.0244
 senseamp_power (W): 0.192
 tagarray_power (W): 0.531433
sim: command line: /home/passionguan/Downloads/Computer_Architecture_Course/Homework_3/hw3_simplescalar_archive/sim-wattch-1.02e/sim-outorder -config ruu_size_8.cfg ./compress.ss 

sim: simulation started @ Mon Oct 17 02:27:57 2016, options follow:

sim-outorder: This simulator implements a very detailed out-of-order issue
superscalar processor with a two-level memory system and speculative
execution support.  This simulator is a performance simulator, tracking the
latency of all pipeline operations.

# -config                     # load configuration from a file
# -dumpconfig                 # dump configuration to a file
# -h                    false # print help message    
# -v                    false # verbose operation     
# -d                    false # enable debug message  
# -i                    false # start in Dlite debugger
-seed                       1 # random number generator seed (0 for timer seed)
# -q                    false # initialize and terminate immediately
# -chkpt               <null> # restore EIO trace execution from <fname>
# -redir:sim           <null> # redirect simulator output to file (non-interactive only)
# -redir:prog          <null> # redirect simulated program output to file
-nice                       0 # simulator scheduling priority
-max:inst                   0 # maximum number of inst's to execute
-fastfwd                    0 # number of insts skipped before timing starts
# -ptrace              <null> # generate pipetrace, i.e., <fname|stdout|stderr> <range>
-fetch:ifqsize              4 # instruction fetch queue size (in insts)
-fetch:mplat                3 # extra branch mis-prediction latency
-fetch:speed                1 # speed of front-end of machine relative to execution core
-bpred                  bimod # branch predictor type {nottaken|taken|perfect|bimod|2lev|comb}
-bpred:bimod     4096 # bimodal predictor config (<table size>)
-bpred:2lev      1 1024 8 0 # 2-level predictor config (<l1size> <l2size> <hist_size> <xor>)
-bpred:comb      1024 # combining predictor config (<meta_table_size>)
-bpred:ras                  8 # return address stack size (0 for no return stack)
-bpred:btb       512 4 # BTB config (<num_sets> <associativity>)
# -bpred:spec_update       <null> # speculative predictors update in {ID|WB} (default non-spec)
-decode:width               4 # instruction decode B/W (insts/cycle)
-issue:width                4 # instruction issue B/W (insts/cycle)
-issue:inorder          false # run pipeline with in-order issue
-issue:wrongpath         true # issue instructions down wrong execution paths
-commit:width               4 # instruction commit B/W (insts/cycle)
-ruu:size                   8 # register update unit (RUU) size
-lsq:size                   8 # load/store queue (LSQ) size
-cache:dl1       dl1:256:32:4:l # l1 data cache config, i.e., {<config>|none}
-cache:dl1lat               1 # l1 data cache hit latency (in cycles)
-cache:dl2       ul2:1024:64:4:l # l2 data cache config, i.e., {<config>|none}
-cache:dl2lat               6 # l2 data cache hit latency (in cycles)
-cache:il1       il1:512:32:1:l # l1 inst cache config, i.e., {<config>|dl1|dl2|none}
-cache:il1lat               1 # l1 instruction cache hit latency (in cycles)
-cache:il2                dl2 # l2 instruction cache config, i.e., {<config>|dl2|none}
-cache:il2lat               6 # l2 instruction cache hit latency (in cycles)
-cache:flush            false # flush caches on system calls
-cache:icompress        false # convert 64-bit inst addresses to 32-bit inst equivalents
-mem:lat         18 2 # memory access latency (<first_chunk> <inter_chunk>)
-mem:width                  8 # memory access bus width (in bytes)
-tlb:itlb        itlb:16:4096:4:l # instruction TLB config, i.e., {<config>|none}
-tlb:dtlb        dtlb:32:4096:4:l # data TLB config, i.e., {<config>|none}
-tlb:lat                   30 # inst/data TLB miss latency (in cycles)
-res:ialu                   2 # total number of integer ALU's available
-res:imult                  1 # total number of integer multiplier/dividers available
-res:memport                2 # total number of memory system ports available (to CPU)
-res:fpalu                  4 # total number of floating point ALU's available
-res:fpmult                 1 # total number of floating point multiplier/dividers available
# -pcstat              <null> # profile stat(s) against text addr's (mult uses ok)
-bugcompat              false # operate in backward-compatible bugs mode (for testing only)

  Pipetrace range arguments are formatted as follows:

    {{@|#}<start>}:{{@|#|+}<end>}

  Both ends of the range are optional, if neither are specified, the entire
  execution is traced.  Ranges that start with a `@' designate an address
  range to be traced, those that start with an `#' designate a cycle count
  range.  All other range values represent an instruction count range.  The
  second argument, if specified with a `+', indicates a value relative
  to the first argument, e.g., 1000:+100 == 1000:1100.  Program symbols may
  be used in all contexts.

    Examples:   -ptrace FOO.trc #0:#1000
                -ptrace BAR.trc @2000:
                -ptrace BLAH.trc :1500
                -ptrace UXXE.trc :
                -ptrace FOOBAR.trc @main:+278

  Branch predictor configuration examples for 2-level predictor:
    Configurations:   N, M, W, X
      N   # entries in first level (# of shift register(s))
      W   width of shift register(s)
      M   # entries in 2nd level (# of counters, or other FSM)
      X   (yes-1/no-0) xor history and address for 2nd level index
    Sample predictors:
      GAg     : 1, W, 2^W, 0
      GAp     : 1, W, M (M > 2^W), 0
      PAg     : N, W, 2^W, 0
      PAp     : N, W, M (M == 2^(N+W)), 0
      gshare  : 1, W, 2^W, 1
  Predictor `comb' combines a bimodal and a 2-level predictor.

  The cache config parameter <config> has the following format:

    <name>:<nsets>:<bsize>:<assoc>:<repl>

    <name>   - name of the cache being defined
    <nsets>  - number of sets in the cache
    <bsize>  - block size of the cache
    <assoc>  - associativity of the cache
    <repl>   - block replacement strategy, 'l'-LRU, 'f'-FIFO, 'r'-random

    Examples:   -cache:dl1 dl1:4096:32:1:l
                -dtlb dtlb:128:4096:32:r

  Cache levels can be unified by pointing a level of the instruction cache
  hierarchy at the data cache hiearchy using the "dl1" and "dl2" cache
  configuration arguments.  Most sensible combinations are supported, e.g.,

    A unified l2 cache (il2 is pointed at dl2):
      -cache:il1 il1:128:64:1:l -cache:il2 dl2
      -cache:dl1 dl1:256:32:1:l -cache:dl2 ul2:1024:64:2:l

    Or, a fully unified cache hierarchy (il1 pointed at dl1):
      -cache:il1 dl1
      -cache:dl1 ul1:256:32:1:l -cache:dl2 ul2:1024:64:2:l



sim: ** starting performance simulation **

sim: ** simulation statistics **
sim_num_insn                3520493 # total number of instructions committed
sim_num_refs                2152774 # total number of loads and stores committed
sim_num_loads                264260 # total number of loads committed
sim_num_stores         1888514.0000 # total number of stores committed
sim_num_branches             338527 # total number of branches committed
sim_elapsed_time                  2 # total simulation time in seconds
sim_inst_rate          1760246.5000 # simulation speed (in insts/sec)
sim_total_insn              3563245 # total number of instructions executed
sim_total_refs              2169114 # total number of loads and stores executed
sim_total_loads              276712 # total number of loads executed
sim_total_stores       1892402.0000 # total number of stores executed
sim_total_branches           344629 # total number of branches executed
sim_cycle                   2342799 # total simulation time in cycles
sim_IPC                      1.5027 # instructions per cycle
sim_CPI                      0.6655 # cycles per instruction
sim_exec_BW                  1.5209 # total instructions (mis-spec + committed) per cycle
sim_IPB                     10.3994 # instruction per branch
IFQ_count                   8321455 # cumulative IFQ occupancy
IFQ_fcount                  2017122 # cumulative IFQ full count
ifq_occupancy                3.5519 # avg IFQ occupancy (insn's)
ifq_rate                     1.5209 # avg IFQ dispatch rate (insn/cycle)
ifq_latency                  2.3354 # avg IFQ occupant latency (cycle's)
ifq_full                     0.8610 # fraction of time (cycle's) IFQ was full
RUU_count                  16994205 # cumulative RUU occupancy
RUU_fcount                  2076764 # cumulative RUU full count
ruu_occupancy                7.2538 # avg RUU occupancy (insn's)
ruu_rate                     1.5209 # avg RUU dispatch rate (insn/cycle)
ruu_latency                  4.7693 # avg RUU occupant latency (cycle's)
ruu_full                     0.8864 # fraction of time (cycle's) RUU was full
LSQ_count                   9325485 # cumulative LSQ occupancy
LSQ_fcount                   432099 # cumulative LSQ full count
lsq_occupancy                3.9805 # avg LSQ occupancy (insn's)
lsq_rate                     1.5209 # avg LSQ dispatch rate (insn/cycle)
lsq_latency                  2.6171 # avg LSQ occupant latency (cycle's)
lsq_full                     0.1844 # fraction of time (cycle's) LSQ was full
sim_slip                   31854527 # total number of slip cycles
avg_sim_slip                 9.0483 # the average slip between issue and retirement
bpred_bimod.lookups          351339 # total number of bpred lookups
bpred_bimod.updates          338527 # total number of updates
bpred_bimod.addr_hits        328367 # total number of address-predicted hits
bpred_bimod.dir_hits         328682 # total number of direction-predicted hits (includes addr-hits)
bpred_bimod.misses             9845 # total number of misses
bpred_bimod.jr_hits           23847 # total number of address-predicted hits for JR's
bpred_bimod.jr_seen           23986 # total number of JR's seen
bpred_bimod.jr_non_ras_hits.PP           63 # total number of address-predicted hits for non-RAS JR's
bpred_bimod.jr_non_ras_seen.PP          188 # total number of non-RAS JR's seen
bpred_bimod.bpred_addr_rate    0.9700 # branch address-prediction rate (i.e., addr-hits/updates)
bpred_bimod.bpred_dir_rate    0.9709 # branch direction-prediction rate (i.e., all-hits/updates)
bpred_bimod.bpred_jr_rate    0.9942 # JR address-prediction rate (i.e., JR addr-hits/JRs seen)
bpred_bimod.bpred_jr_non_ras_rate.PP    0.3351 # non-RAS JR addr-pred rate (ie, non-RAS JR hits/JRs seen)
bpred_bimod.retstack_pushes        26136 # total number of address pushed onto ret-addr stack
bpred_bimod.retstack_pops        24609 # total number of address popped off of ret-addr stack
bpred_bimod.used_ras.PP        23798 # total number of RAS predictions used
bpred_bimod.ras_hits.PP        23784 # total number of RAS hits
bpred_bimod.ras_rate.PP    0.9994 # RAS prediction rate (i.e., RAS hits/used RAS)
il1.accesses                3611311 # total number of accesses
il1.hits                    3598535 # total number of hits
il1.misses                    12776 # total number of misses
il1.replacements              12315 # total number of replacements
il1.writebacks                    0 # total number of writebacks
il1.invalidations                 0 # total number of invalidations
il1.miss_rate                0.0035 # miss rate (i.e., misses/ref)
il1.repl_rate                0.0034 # replacement rate (i.e., repls/ref)
il1.wb_rate                  0.0000 # writeback rate (i.e., wrbks/ref)
il1.inv_rate                 0.0000 # invalidation rate (i.e., invs/ref)
dl1.accesses                2154919 # total number of accesses
dl1.hits                    1922441 # total number of hits
dl1.misses                   232478 # total number of misses
dl1.replacements             231454 # total number of replacements
dl1.writebacks               228501 # total number of writebacks
dl1.invalidations                 0 # total number of invalidations
dl1.miss_rate                0.1079 # miss rate (i.e., misses/ref)
dl1.repl_rate                0.1074 # replacement rate (i.e., repls/ref)
dl1.wb_rate                  0.1060 # writeback rate (i.e., wrbks/ref)
dl1.inv_rate                 0.0000 # invalidation rate (i.e., invs/ref)
ul2.accesses                 473755 # total number of accesses
ul2.hits                     413644 # total number of hits
ul2.misses                    60111 # total number of misses
ul2.replacements              56015 # total number of replacements
ul2.writebacks                50148 # total number of writebacks
ul2.invalidations                 0 # total number of invalidations
ul2.miss_rate                0.1269 # miss rate (i.e., misses/ref)
ul2.repl_rate                0.1182 # replacement rate (i.e., repls/ref)
ul2.wb_rate                  0.1059 # writeback rate (i.e., wrbks/ref)
ul2.inv_rate                 0.0000 # invalidation rate (i.e., invs/ref)
itlb.accesses               3611311 # total number of accesses
itlb.hits                   3611291 # total number of hits
itlb.misses                      20 # total number of misses
itlb.replacements                 0 # total number of replacements
itlb.writebacks                   0 # total number of writebacks
itlb.invalidations                0 # total number of invalidations
itlb.miss_rate               0.0000 # miss rate (i.e., misses/ref)
itlb.repl_rate               0.0000 # replacement rate (i.e., repls/ref)
itlb.wb_rate                 0.0000 # writeback rate (i.e., wrbks/ref)
itlb.inv_rate                0.0000 # invalidation rate (i.e., invs/ref)
dtlb.accesses               2155020 # total number of accesses
dtlb.hits                   2154805 # total number of hits
dtlb.misses                     215 # total number of misses
dtlb.replacements                88 # total number of replacements
dtlb.writebacks                   0 # total number of writebacks
dtlb.invalidations                0 # total number of invalidations
dtlb.miss_rate               0.0001 # miss rate (i.e., misses/ref)
dtlb.repl_rate               0.0000 # replacement rate (i.e., repls/ref)
dtlb.wb_rate                 0.0000 # writeback rate (i.e., wrbks/ref)
dtlb.inv_rate                0.0000 # invalidation rate (i.e., invs/ref)
rename_power            823574.4459 # total power usage of rename unit
bpred_power            10782376.3339 # total power usage of bpred unit
window_power           3233139.2908 # total power usage of instruction window
lsq_power              2003736.8453 # total power usage of load/store queue
regfile_power          8369584.0763 # total power usage of arch. regfile
icache_power           5802976.6225 # total power usage of icache
dcache_power           21665678.9291 # total power usage of dcache
dcache2_power          9861064.5982 # total power usage of dcache2
alu_power              38916492.3030 # total power usage of alu
falu_power             33457617.8169 # total power usage of falu
resultbus_power        2651762.0510 # total power usage of resultbus
clock_power            58741130.1029 # total power usage of clock
avg_rename_power             0.3515 # avg power usage of rename unit
avg_bpred_power              4.6023 # avg power usage of bpred unit
avg_window_power             1.3800 # avg power usage of instruction window
avg_lsq_power                0.8553 # avg power usage of lsq
avg_regfile_power            3.5725 # avg power usage of arch. regfile
avg_icache_power             2.4769 # avg power usage of icache
avg_dcache_power             9.2478 # avg power usage of dcache
avg_dcache2_power            4.2091 # avg power usage of dcache2
avg_alu_power               16.6111 # avg power usage of alu
avg_falu_power              14.2810 # avg power usage of falu
avg_resultbus_power          1.1319 # avg power usage of resultbus
avg_clock_power             25.0731 # avg power usage of clock
fetch_stage_power      16585352.9564 # total power usage of fetch stage
dispatch_stage_power    823574.4459 # total power usage of dispatch stage
issue_stage_power      78331874.0174 # total power usage of issue stage
avg_fetch_power              7.0793 # average power of fetch unit per cycle
avg_dispatch_power           0.3515 # average power of dispatch unit per cycle
avg_issue_power             33.4352 # average power of issue unit per cycle
total_power            162851515.5989 # total power per cycle
avg_total_power_cycle       69.5115 # average total power per cycle
avg_total_power_cycle_nofp_nod2      51.0214 # average total power per cycle
avg_total_power_insn        45.7031 # average total power per insn
avg_total_power_insn_nofp_nod2      33.5461 # average total power per insn
rename_power_cc1        602770.7664 # total power usage of rename unit_cc1
bpred_power_cc1        1433580.7817 # total power usage of bpred unit_cc1
window_power_cc1       2151694.9387 # total power usage of instruction window_cc1
lsq_power_cc1           422565.9186 # total power usage of lsq_cc1
regfile_power_cc1      4630669.9489 # total power usage of arch. regfile_cc1
icache_power_cc1       4319226.5988 # total power usage of icache_cc1
dcache_power_cc1       11173462.7755 # total power usage of dcache_cc1
dcache2_power_cc1      1032175.4303 # total power usage of dcache2_cc1
alu_power_cc1          4935910.5124 # total power usage of alu_cc1
resultbus_power_cc1    1882196.0371 # total power usage of resultbus_cc1
clock_power_cc1        16176681.1081 # total power usage of clock_cc1
avg_rename_power_cc1         0.2573 # avg power usage of rename unit_cc1
avg_bpred_power_cc1          0.6119 # avg power usage of bpred unit_cc1
avg_window_power_cc1         0.9184 # avg power usage of instruction window_cc1
avg_lsq_power_cc1            0.1804 # avg power usage of lsq_cc1
avg_regfile_power_cc1        1.9766 # avg power usage of arch. regfile_cc1
avg_icache_power_cc1         1.8436 # avg power usage of icache_cc1
avg_dcache_power_cc1         4.7693 # avg power usage of dcache_cc1
avg_dcache2_power_cc1        0.4406 # avg power usage of dcache2_cc1
avg_alu_power_cc1            2.1068 # avg power usage of alu_cc1
avg_resultbus_power_cc1       0.8034 # avg power usage of resultbus_cc1
avg_clock_power_cc1          6.9049 # avg power usage of clock_cc1
fetch_stage_power_cc1  5752807.3805 # total power usage of fetch stage_cc1
dispatch_stage_power_cc1  602770.7664 # total power usage of dispatch stage_cc1
issue_stage_power_cc1  21598005.6127 # total power usage of issue stage_cc1
avg_fetch_power_cc1          2.4555 # average power of fetch unit per cycle_cc1
avg_dispatch_power_cc1       0.2573 # average power of dispatch unit per cycle_cc1
avg_issue_power_cc1          9.2189 # average power of issue unit per cycle_cc1
total_power_cycle_cc1  48760934.8166 # total power per cycle_cc1
avg_total_power_cycle_cc1      20.8131 # average total power per cycle_cc1
avg_total_power_insn_cc1      13.6844 # average total power per insn_cc1
rename_power_cc2        313123.8200 # total power usage of rename unit_cc2
bpred_power_cc2         779009.5337 # total power usage of bpred unit_cc2
window_power_cc2       1497135.6363 # total power usage of instruction window_cc2
lsq_power_cc2           316505.0875 # total power usage of lsq_cc2
regfile_power_cc2      1574778.1161 # total power usage of arch. regfile_cc2
icache_power_cc2       4319226.5988 # total power usage of icache_cc2
dcache_power_cc2       9964103.4448 # total power usage of dcache_cc2
dcache2_power_cc2       997040.0061 # total power usage of dcache2_cc2
alu_power_cc2          4196819.8352 # total power usage of alu_cc2
resultbus_power_cc2     877745.1233 # total power usage of resultbus_cc2
clock_power_cc2        11387952.5940 # total power usage of clock_cc2
avg_rename_power_cc2         0.1337 # avg power usage of rename unit_cc2
avg_bpred_power_cc2          0.3325 # avg power usage of bpred unit_cc2
avg_window_power_cc2         0.6390 # avg power usage of instruction window_cc2
avg_lsq_power_cc2            0.1351 # avg power usage of instruction lsq_cc2
avg_regfile_power_cc2        0.6722 # avg power usage of arch. regfile_cc2
avg_icache_power_cc2         1.8436 # avg power usage of icache_cc2
avg_dcache_power_cc2         4.2531 # avg power usage of dcache_cc2
avg_dcache2_power_cc2        0.4256 # avg power usage of dcache2_cc2
avg_alu_power_cc2            1.7914 # avg power usage of alu_cc2
avg_resultbus_power_cc2       0.3747 # avg power usage of resultbus_cc2
avg_clock_power_cc2          4.8608 # avg power usage of clock_cc2
fetch_stage_power_cc2  5098236.1325 # total power usage of fetch stage_cc2
dispatch_stage_power_cc2  313123.8200 # total power usage of dispatch stage_cc2
issue_stage_power_cc2  17849349.1331 # total power usage of issue stage_cc2
avg_fetch_power_cc2          2.1761 # average power of fetch unit per cycle_cc2
avg_dispatch_power_cc2       0.1337 # average power of dispatch unit per cycle_cc2
avg_issue_power_cc2          7.6188 # average power of issue unit per cycle_cc2
total_power_cycle_cc2  36223439.7957 # total power per cycle_cc2
avg_total_power_cycle_cc2      15.4616 # average total power per cycle_cc2
avg_total_power_insn_cc2      10.1659 # average total power per insn_cc2
rename_power_cc3        335204.1879 # total power usage of rename unit_cc3
bpred_power_cc3        1714026.6991 # total power usage of bpred unit_cc3
window_power_cc3       1548904.9961 # total power usage of instruction window_cc3
lsq_power_cc3           469985.3713 # total power usage of lsq_cc3
regfile_power_cc3      1789773.7744 # total power usage of arch. regfile_cc3
icache_power_cc3       4467601.6012 # total power usage of icache_cc3
dcache_power_cc3       11021627.2506 # total power usage of dcache_cc3
dcache2_power_cc3      1879960.9120 # total power usage of dcache2_cc3
alu_power_cc3          7594878.0146 # total power usage of alu_cc3
resultbus_power_cc3     932907.0721 # total power usage of resultbus_cc3
clock_power_cc3        15545376.2878 # total power usage of clock_cc3
avg_rename_power_cc3         0.1431 # avg power usage of rename unit_cc3
avg_bpred_power_cc3          0.7316 # avg power usage of bpred unit_cc3
avg_window_power_cc3         0.6611 # avg power usage of instruction window_cc3
avg_lsq_power_cc3            0.2006 # avg power usage of instruction lsq_cc3
avg_regfile_power_cc3        0.7639 # avg power usage of arch. regfile_cc3
avg_icache_power_cc3         1.9070 # avg power usage of icache_cc3
avg_dcache_power_cc3         4.7045 # avg power usage of dcache_cc3
avg_dcache2_power_cc3        0.8024 # avg power usage of dcache2_cc3
avg_alu_power_cc3            3.2418 # avg power usage of alu_cc3
avg_resultbus_power_cc3       0.3982 # avg power usage of resultbus_cc3
avg_clock_power_cc3          6.6354 # avg power usage of clock_cc3
fetch_stage_power_cc3  6181628.3003 # total power usage of fetch stage_cc3
dispatch_stage_power_cc3  335204.1879 # total power usage of dispatch stage_cc3
issue_stage_power_cc3  23448263.6166 # total power usage of issue stage_cc3
avg_fetch_power_cc3          2.6386 # average power of fetch unit per cycle_cc3
avg_dispatch_power_cc3       0.1431 # average power of dispatch unit per cycle_cc3
avg_issue_power_cc3         10.0087 # average power of issue unit per cycle_cc3
total_power_cycle_cc3  47300246.1670 # total power per cycle_cc3
avg_total_power_cycle_cc3      20.1896 # average total power per cycle_cc3
avg_total_power_insn_cc3      13.2745 # average total power per insn_cc3
total_rename_access         3562938 # total number accesses of rename unit
total_bpred_access           338527 # total number accesses of bpred unit
total_window_access        13338081 # total number accesses of instruction window
total_lsq_access            2155180 # total number accesses of load/store queue
total_regfile_access        7637024 # total number accesses of arch. regfile
total_icache_access         3611704 # total number accesses of icache
total_dcache_access         2154919 # total number accesses of dcache
total_dcache2_access         473755 # total number accesses of dcache2
total_alu_access            3497756 # total number accesses of alu
total_resultbus_access      3459663 # total number accesses of resultbus
avg_rename_access            1.5208 # avg number accesses of rename unit
avg_bpred_access             0.1445 # avg number accesses of bpred unit
avg_window_access            5.6932 # avg number accesses of instruction window
avg_lsq_access               0.9199 # avg number accesses of lsq
avg_regfile_access           3.2598 # avg number accesses of arch. regfile
avg_icache_access            1.5416 # avg number accesses of icache
avg_dcache_access            0.9198 # avg number accesses of dcache
avg_dcache2_access           0.2022 # avg number accesses of dcache2
avg_alu_access               1.4930 # avg number accesses of alu
avg_resultbus_access         1.4767 # avg number accesses of resultbus
max_rename_access                 4 # max number accesses of rename unit
max_bpred_access                  4 # max number accesses of bpred unit
max_window_access                14 # max number accesses of instruction window
max_lsq_access                    3 # max number accesses of load/store queue
max_regfile_access               12 # max number accesses of arch. regfile
max_icache_access                 4 # max number accesses of icache
max_dcache_access                 4 # max number accesses of dcache
max_dcache2_access                4 # max number accesses of dcache2
max_alu_access                    3 # max number accesses of alu
max_resultbus_access              7 # max number accesses of resultbus
max_cycle_power_cc1         42.1076 # maximum cycle power usage of cc1
max_cycle_power_cc2         32.9722 # maximum cycle power usage of cc2
max_cycle_power_cc3         36.4961 # maximum cycle power usage of cc3
sim_invalid_addrs                 0 # total non-speculative bogus addresses seen (debug var)
ld_text_base             0x00400000 # program text (code) segment base
ld_text_size                 103840 # program text (code) size in bytes
ld_data_base             0x10000000 # program initialized data segment base
ld_data_size               44123012 # program init'ed `.data' and uninit'ed `.bss' size in bytes
ld_stack_base            0x7fffc000 # program stack segment base (highest address in stack)
ld_stack_size                 16384 # program initial stack size
ld_prog_entry            0x00400140 # program entry point (initial PC)
ld_environ_base          0x7fff8000 # program environment base address address
ld_target_big_endian              0 # target executable endian-ness, non-zero if big endian
mem.page_count                  167 # total number of pages allocated
mem.page_mem                   668k # total size of memory pages allocated
mem.ptab_misses                 167 # total first level page table misses
mem.ptab_accesses          32436398 # total page table accesses
mem.ptab_miss_rate           0.0000 # first level page table miss rate

